Pcp_File_Version=4
*** BLOCK I: ATMOSPHERIC INFORMATION  **********************************
   MaxAL                    (MaxAL = number of atmospheric data-records)
     31
 DailyVar  SinusVar  lLay  lBCCycles lInterc lDummy  lDummy  lDummy  lDummy  lDummy
       f       f       t       f       f       f       f       f       f       f
 Extinction
     0.4
 hCritS                 (max. allowed pressure head at the soil surface)
      0
       tAtm        Prec       rSoil       rRoot      hCritA          rB          hB          ht        tTop        tBot        Ampl        cTop        cBot   RootDepth
        253           0      0.2457           0      100000           0           0           0           0           0           0          70           0 
        254         2.7      0.2178           0      100000           0           0           0           0           0           0         430           0 
        255         2.8      0.3465           0      100000           0           0           0           0           0           0          40           0 
        256           0      0.3528           0      100000           0           0           0           0           0           0          70           0 
        257           0       0.288           0      100000           0           0           0           0           0           0          70           0 
        258           0      0.2529           0      100000           0           0           0           0           0           0          70           0 
        259        0.02       0.279           0      100000           0           0           0           0           0           0          70           0 
        260           0       0.297           0      100000           0           0           0           0           0           0          70           0 
        261           0       0.252           0      100000           0           0           0           0           0           0          70           0 
        262           0      0.2646           0      100000           0           0           0           0           0           0          70           0 
        263        0.22      0.1656           0      100000           0           0           0           0           0           0          70           0 
        264        0.04       0.378           0      100000           0           0           0           0           0           0          70           0 
        265         0.5      0.4167           0      100000           0           0           0           0           0           0          70           0 
        266           0      0.3951           0      100000           0           0           0           0           0           0          70           0 
        267           0      0.4185           0      100000           0           0           0           0           0           0          70           0 
        268           0      0.1125           0      100000           0           0           0           0           0           0          70           0 
        269           0      0.1305           0      100000           0           0           0           0           0           0          70           0 
        270           0       0.315           0      100000           0           0           0           0           0           0          70           0 
        271           0      0.4167           0      100000           0           0           0           0           0           0          70           0 
        272           0      0.3366           0      100000           0           0           0           0           0           0          70           0 
        273           0      0.1512           0      100000           0           0           0           0           0           0          70           0 
        274           0      0.1521           0      100000           0           0           0           0           0           0          70           0 
        275           0      0.1593           0      100000           0           0           0           0           0           0          70           0 
        276           0      0.2601           0      100000           0           0           0           0           0           0          70           0 
        277           0      0.1008           0      100000           0           0           0           0           0           0          70           0 
        278           0      0.1476           0      100000           0           0           0           0           0           0          70           0 
        279           0      0.4014           0      100000           0           0           0           0           0           0          70           0 
        280           0      0.3663           0      100000           0           0           0           0           0           0          70           0 
        281        0.02      0.3636           0      100000           0           0           0           0           0           0          70           0 
        282           0      0.4104           0      100000           0           0           0           0           0           0          70           0 
        283           0      0.4194           0      100000           0           0           0           0           0           0          70           0 
end*** END OF INPUT FILE 'ATMOSPH.IN' **********************************
