Pcp_File_Version=4
      1
Welcome to HYDRUS-1D
  
   NOBB     MIT iWeight
   4377       0       2
  lWatF  lChemF    NMat   lTempF
      t       t       3       f
  Model   Hysteresis
      0       0
     NS  ConcType   lBact    lFiltr   lDualNEq
      1         0       0        f       f
    thr     ths    Alfa       n         Ks       l
      0     0.3   0.023    1.14        110     0.5 
      0       0       0       0          0       0 
      0       0       0       0          0       0 
      0       0       0       0          0       0 
    thr     ths    Alfa       n         Ks       l
      0    0.32   0.076    1.07       6000     0.5 
      0       0       0       0          0       0 
      0       0       0       0          0       0 
      0       0       0       0          0       0 
    thr     ths    Alfa       n         Ks       l
      0    0.32   0.016     1.9        110     0.5 
      0       0       1       1          1       0 
      0       0       0       0          0       0 
      0       0       0       0          0       0 
Bulk.d.   DisperL.    Frac     MobileWC DifW     DifG       Ks       Nu     Beta    Henry    SnkL1    SnkS1    SnkG1   SnkL1'   SnkS1'   SnkG1'    SnkL0    SnkS0    SnkG0     Alfa
     1.5      4.7        1        0     2.13        0        0        0        1        0        0        0        0        0        0        0        0        0        0        0 
       0        0        0        0        0        0        0        0        0        0        0        0        0        0        0        0        0        0        0        0 
       0        0        0        0        0        0        0        0        0        0        0        0        0        0        0        0        0        0        0        0 
       0        0        0        0        0        0        0        0        0        0        0        0        0        0        0        0        0        0        0        0 
Bulk.d.   DisperL.    Frac     MobileWC DifW     DifG       Ks       Nu     Beta    Henry    SnkL1    SnkS1    SnkG1   SnkL1'   SnkS1'   SnkG1'    SnkL0    SnkS0    SnkG0     Alfa
     1.5      4.7        1        0     2.13        0        0        0        1        0        0        0        0        0        0        0        0        0        0        0 
       0        0        0        0        0        0        0        0        0        0        0        0        0        0        0        0        0        0        0        0 
       0        0        0        0        0        0        0        0        0        0        0        0        0        0        0        0        0        0        0        0 
       0        0        0        0        0        0        0        0        0        0        0        0        0        0        0        0        0        0        0        0 
Bulk.d.   DisperL.    Frac     MobileWC DifW     DifG       Ks       Nu     Beta    Henry    SnkL1    SnkS1    SnkG1   SnkL1'   SnkS1'   SnkG1'    SnkL0    SnkS0    SnkG0     Alfa
     1.5      4.7        1        0     2.13        0        0        0        1        0        0        0        0        0        0        0        0        0        0        0 
       0        0        0        0        0        0        0        0        0        0        0        0        0        0        0        0        0        0        0        0 
       0        0        0        0        0        0        0        0        0        0        0        0        0        0        0        0        0        0        0        0 
       0        0        0        0        0        0        0        0        0        0        0        0        0        0        0        0        0        0        0        0 
      HO(N)         FOS   ITYPE(N) POS     WTS
           7      -0.1125     0     2        1 
          14      -0.1405     0     2        1 
          21      -0.1405     0     2        1 
          28      -0.1475     0     2        1 
          35      -0.1515     0     2        1 
          42      -0.1765     0     2        1 
          49      -0.2196     0     2        1 
          56      -0.2313     0     2        1 
          63      -0.2398     0     2        1 
          70       -0.249     0     2        1 
          77      -0.2627     0     2        1 
          84      -0.7067     0     2        1 
          91      -1.9203     0     2        1 
          98       -3.807     0     2        1 
         105     -17.1036     0     2        1 
         112     -17.9891     0     2        1 
         119     -18.5041     0     2        1 
         126     -19.9381     0     2        1 
         133     -20.2851     0     2        1 
         140     -20.7256     0     2        1 
         147     -24.7226     0     2        1 
         154     -26.6911     0     2        1 
         161     -27.2831     0     2        1 
         168     -29.7831     0     2        1 
         175     -31.5416     0     2        1 
         182     -32.4336     0     2        1 
         189     -35.6426     0     2        1 
         196     -37.9381     0     2        1 
         203     -39.2001     0     2        1 
         210     -40.6781     0     2        1 
         217     -41.6411     0     2        1 
         224     -42.8916     0     2        1 
         231     -43.0806     0     2        1 
         238     -43.0806     0     2        1 
         245     -46.7366     0     2        1 
         252     -51.0226     0     2        1 
         259     -51.2671     0     2        1 
         266     -51.3496     0     2        1 
         273     -51.4356     0     2        1 
         280     -51.7566     0     2        1 
         287     -51.9046     0     2        1 
         294     -51.9921     0     2        1 
         301     -52.0466     0     2        1 
         308     -53.6886     0     2        1 
         315     -54.8271     0     2        1 
         322     -57.3481     0     2        1 
         329     -57.8676     0     2        1 
         336     -57.9766     0     2        1 
         343     -58.5521     0     2        1 
         350     -59.2451     0     2        1 
         357     -59.4116     0     2        1 
         364     -59.4736     0     2        1 
         371     -59.4991     0     2        1 
         378     -59.5036     0     2        1 
         385     -59.5036     0     2        1 
         392     -59.5056     0     2        1 
         399     -59.5056     0     2        1 
         406     -59.5056     0     2        1 
         413     -59.5061     0     2        1 
         420     -59.5086     0     2        1 
         427     -59.5101     0     2        1 
         434     -59.5111     0     2        1 
         441     -59.5116     0     2        1 
         448     -59.5126     0     2        1 
         455     -59.5136     0     2        1 
         462     -59.5146     0     2        1 
         469     -59.5166     0     2        1 
         476     -59.5196     0     2        1 
         483     -59.5226     0     2        1 
         490     -59.5246     0     2        1 
         497     -59.5266     0     2        1 
         504     -59.5286     0     2        1 
         511     -59.5291     0     2        1 
         518     -59.5291     0     2        1 
         525     -64.7036     0     2        1 
         532     -67.8791     0     2        1 
         539     -67.8791     0     2        1 
         546     -68.1396     0     2        1 
         553     -70.2091     0     2        1 
         560     -70.7266     0     2        1 
         567     -70.8996     0     2        1 
         574     -71.0101     0     2        1 
         581     -72.4491     0     2        1 
         588     -72.7506     0     2        1 
         595     -72.7616     0     2        1 
         602     -72.7616     0     2        1 
         609     -72.7616     0     2        1 
         616     -72.7616     0     2        1 
         623     -72.7626     0     2        1 
         630     -72.7626     0     2        1 
         637     -72.7626     0     2        1 
         644     -72.7626     0     2        1 
         651     -72.7626     0     2        1 
         658     -72.7626     0     2        1 
         665     -72.7626     0     2        1 
         672     -72.7626     0     2        1 
         679     -72.7626     0     2        1 
         686     -72.7626     0     2        1 
         693     -72.7726     0     2        1 
         700     -76.6176     0     2        1 
         707     -78.7861     0     2        1 
         714     -79.2906     0     2        1 
         721     -79.3116     0     2        1 
         728     -79.3131     0     2        1 
         735     -79.3131     0     2        1 
         742     -79.3131     0     2        1 
         749     -79.3131     0     2        1 
         756     -79.3191     0     2        1 
         763     -80.9606     0     2        1 
         770     -83.0371     0     2        1 
         777     -83.1336     0     2        1 
         784     -84.9531     0     2        1 
         791     -86.6506     0     2        1 
         798     -86.9876     0     2        1 
         805     -87.4941     0     2        1 
         812     -89.0061     0     2        1 
         819     -89.0216     0     2        1 
         826     -89.0251     0     2        1 
         833     -89.0266     0     2        1 
         840     -89.0266     0     2        1 
         847     -89.0551     0     2        1 
         854     -92.4061     0     2        1 
         861     -93.0951     0     2        1 
         868     -93.1221     0     2        1 
         875     -94.1401     0     2        1 
         882     -97.1666     0     2        1 
         889     -97.6121     0     2        1 
         896     -97.6121     0     2        1 
         903     -98.3831     0     2        1 
         910     -98.8271     0     2        1 
         917     -99.1076     0     2        1 
         924     -101.177     0     2        1 
         931     -101.695     0     2        1 
         938     -101.868     0     2        1 
         945     -101.978     0     2        1 
         952     -103.417     0     2        1 
         959     -103.719     0     2        1 
         966      -103.73     0     2        1 
         973      -103.73     0     2        1 
         980      -103.73     0     2        1 
         987     -103.902     0     2        1 
         994     -103.902     0     2        1 
        1001     -103.906     0     2        1 
        1008     -103.906     0     2        1 
        1015     -103.906     0     2        1 
        1022     -104.037     0     2        1 
        1029     -104.254     0     2        1 
        1036     -104.558     0     2        1 
        1043     -104.787     0     2        1 
        1050     -104.787     0     2        1 
        1057     -113.891     0     2        1 
        1064     -117.837     0     2        1 
        1071     -119.179     0     2        1 
        1078     -119.478     0     2        1 
        1085     -119.703     0     2        1 
        1092     -120.229     0     2        1 
        1099     -120.455     0     2        1 
        1106     -120.916     0     2        1 
        1113     -121.147     0     2        1 
        1120     -121.536     0     2        1 
        1127     -121.562     0     2        1 
        1134     -121.566     0     2        1 
        1141     -121.659     0     2        1 
        1148     -121.659     0     2        1 
        1155     -121.659     0     2        1 
        1162      -124.46     0     2        1 
        1169     -132.559     0     2        1 
        1176      -133.66     0     2        1 
        1183     -133.687     0     2        1 
        1190     -134.495     0     2        1 
        1197     -135.356     0     2        1 
        1204     -138.565     0     2        1 
        1211     -142.954     0     2        1 
        1218      -143.95     0     2        1 
        1225     -143.955     0     2        1 
        1232     -143.955     0     2        1 
        1239     -143.955     0     2        1 
        1246     -143.955     0     2        1 
        1253     -147.527     0     2        1 
        1260     -149.074     0     2        1 
        1267     -149.121     0     2        1 
        1274     -149.125     0     2        1 
        1281     -149.125     0     2        1 
        1288     -149.125     0     2        1 
        1295     -149.125     0     2        1 
        1302     -149.125     0     2        1 
        1309     -149.138     0     2        1 
        1316     -149.138     0     2        1 
        1323     -149.715     0     2        1 
        1330     -150.874     0     2        1 
        1337     -150.874     0     2        1 
        1344     -150.874     0     2        1 
        1351     -152.697     0     2        1 
        1358     -152.901     0     2        1 
        1365     -152.901     0     2        1 
        1372     -152.943     0     2        1 
        1379     -152.943     0     2        1 
        1386     -152.943     0     2        1 
        1393     -153.587     0     2        1 
        1400       -155.3     0     2        1 
        1407       -155.3     0     2        1 
        1414     -156.238     0     2        1 
        1421     -156.759     0     2        1 
        1428     -169.609     0     2        1 
        1435     -172.167     0     2        1 
        1442     -172.589     0     2        1 
        1449     -173.117     0     2        1 
        1456     -173.292     0     2        1 
        1463     -174.615     0     2        1 
        1470     -174.855     0     2        1 
        1477     -174.873     0     2        1 
        1484     -176.549     0     2        1 
        1491     -180.704     0     2        1 
        1498     -185.401     0     2        1 
        1505     -186.031     0     2        1 
        1512     -187.132     0     2        1 
        1519     -187.899     0     2        1 
        1526     -189.884     0     2        1 
        1533     -189.941     0     2        1 
        1540     -189.941     0     2        1 
        1547     -189.941     0     2        1 
        1554     -189.945     0     2        1 
        1561     -192.562     0     2        1 
        1568     -194.051     0     2        1 
        1575     -194.074     0     2        1 
        1582     -197.275     0     2        1 
        1589     -198.615     0     2        1 
        1596      -198.63     0     2        1 
        1603     -199.437     0     2        1 
        1610     -199.837     0     2        1 
        1617     -200.222     0     2        1 
        1624     -201.643     0     2        1 
        1631     -201.814     0     2        1 
        1638     -201.814     0     2        1 
        1645     -203.946     0     2        1 
        1652     -205.342     0     2        1 
        1659     -212.169     0     2        1 
        1666     -212.169     0     2        1 
        1673     -212.939     0     2        1 
        1680     -213.176     0     2        1 
        1687     -214.576     0     2        1 
        1694      -214.68     0     2        1 
        1701      -214.68     0     2        1 
        1708     -219.804     0     2        1 
        1715     -233.606     0     2        1 
        1722     -240.191     0     2        1 
        1729     -249.241     0     2        1 
        1736      -249.63     0     2        1 
           7        21.83     4     8        1 
          14        21.28     4     8        1 
          28        21.23     4     8        1 
          35        21.28     4     8        1 
          42         21.3     4     8        1 
          49        21.35     4     8        1 
          56        21.22     4     8        1 
          63        21.28     4     8        1 
          70        21.22     4     8        1 
          77        21.21     4     8        1 
          84        21.74     4     8        1 
          91        21.87     4     8        1 
          98        21.73     4     8        1 
         105        20.65     4     8        1 
         112        21.07     4     8        1 
         119        20.75     4     8        1 
         126       21.215     4     8        1 
         133       21.125     4     8        1 
         140       21.255     4     8        1 
         147        21.51     4     8        1 
         154       21.835     4     8        1 
         161       21.895     4     8        1 
         168       22.275     4     8        1 
         175        22.41     4     8        1 
         182       22.445     4     8        1 
         189        22.56     4     8        1 
         196        22.56     4     8        1 
         203        22.44     4     8        1 
         210        22.43     4     8        1 
         217        22.26     4     8        1 
         224        22.18     4     8        1 
         231        22.18     4     8        1 
         245        20.02     4     8        1 
         252        20.19     4     8        1 
         259        20.04     4     8        1 
         266        19.75     4     8        1 
         273        19.82     4     8        1 
         280        20.36     4     8        1 
         287        20.16     4     8        1 
         294        19.93     4     8        1 
         301        19.76     4     8        1 
         308        17.27     4     8        1 
         315        19.26     4     8        1 
         322        19.28     4     8        1 
         329         19.4     4     8        1 
         336         19.5     4     8        1 
         343        19.41     4     8        1 
         350         19.3     4     8        1 
         357        19.47     4     8        1 
         364        19.37     4     8        1 
         371        19.39     4     8        1 
         378        19.47     4     8        1 
         392        19.92     4     8        1 
         413        16.66     4     8        1 
         420        18.38     4     8        1 
         427        18.63     4     8        1 
         455        19.25     4     8        1 
         462        19.25     4     8        1 
         469        18.63     4     8        1 
         476        18.75     4     8        1 
         483        18.75     4     8        1 
         504        19.76     4     8        1 
         511        20.46     4     8        1 
         525        18.69     4     8        1 
         532        18.48     4     8        1 
         546        18.87     4     8        1 
         553        18.64     4     8        1 
         560        18.75     4     8        1 
         567        18.95     4     8        1 
         574        19.08     4     8        1 
         581       18.815     4     8        1 
         588       19.065     4     8        1 
         595        19.38     4     8        1 
         623         21.8     4     8        1 
         693      18.8482     4     8        1 
         700        20.77     4     8        1 
         707       19.495     4     8        1 
         714       19.655     4     8        1 
         721       18.905     4     8        1 
         728        19.11     4     8        1 
         756       18.595     4     8        1 
         763        19.84     4     8        1 
         770        19.93     4     8        1 
         777        19.76     4     8        1 
         784        20.21     4     8        1 
         791        20.44     4     8        1 
         798        20.32     4     8        1 
         805        20.69     4     8        1 
         812        20.78     4     8        1 
         819       19.925     4     8        1 
         826       20.145     4     8        1 
         833        20.25     4     8        1 
         847        20.97     4     8        1 
         854        21.03     4     8        1 
         861       21.085     4     8        1 
         868         20.1     4     8        1 
         875       20.945     4     8        1 
         882         20.9     4     8        1 
         889        20.81     4     8        1 
         903       20.815     4     8        1 
         910       20.875     4     8        1 
         917        20.81     4     8        1 
         924       20.805     4     8        1 
         931        20.86     4     8        1 
         938         20.9     4     8        1 
         945       20.995     4     8        1 
         952       21.175     4     8        1 
         959        21.12     4     8        1 
         966       21.395     4     8        1 
        1001       20.145     4     8        1 
        1022       17.265     4     8        1 
        1029        18.68     4     8        1 
        1036       18.915     4     8        1 
        1043        19.22     4     8        1 
        1057        18.09     4     8        1 
        1064        20.92     4     8        1 
        1071        21.71     4     8        1 
        1078        21.93     4     8        1 
        1085        21.85     4     8        1 
        1092         21.7     4     8        1 
        1099       21.765     4     8        1 
        1106         21.7     4     8        1 
        1113       21.805     4     8        1 
        1120         21.7     4     8        1 
        1127       19.395     4     8        1 
        1134         21.4     4     8        1 
        1141        21.35     4     8        1 
        1162       21.765     4     8        1 
        1169        22.07     4     8        1 
        1176        22.39     4     8        1 
        1183        22.18     4     8        1 
        1190         22.3     4     8        1 
        1197       22.415     4     8        1 
        1204       22.295     4     8        1 
        1211         22.3     4     8        1 
        1218        22.44     4     8        1 
        1225       22.285     4     8        1 
        1253        22.28     4     8        1 
        1260       22.415     4     8        1 
        1267        22.69     4     8        1 
        1274        24.87     4     8        1 
        1309        23.24     4     8        1 
        1323         22.7     4     8        1 
        1330         22.5     4     8        1 
        1351       22.665     4     8        1 
        1358       22.865     4     8        1 
        1393       22.585     4     8        1 
        1400        22.98     4     8        1 
        1414       22.775     4     8        1 
        1421        22.78     4     8        1 
        1428        22.67     4     8        1 
        1435        22.67     4     8        1 
        1442        22.22     4     8        1 
        1449        22.47     4     8        1 
        1456        22.39     4     8        1 
        1463       22.395     4     8        1 
        1470       22.345     4     8        1 
        1477        21.54     4     8        1 
        1484         21.5     4     8        1 
        1491        21.88     4     8        1 
        1498        20.95     4     8        1 
        1505        20.09     4     8        1 
        1512        19.77     4     8        1 
        1519       19.205     4     8        1 
        1526        19.01     4     8        1 
        1533       17.385     4     8        1 
        1554       16.755     4     8        1 
        1561       17.925     4     8        1 
        1568        18.08     4     8        1 
        1575        17.09     4     8        1 
        1582        17.57     4     8        1 
        1589       17.515     4     8        1 
        1596        17.45     4     8        1 
        1603        17.39     4     8        1 
        1610       17.435     4     8        1 
        1617       17.435     4     8        1 
        1624       17.615     4     8        1 
        1631        18.04     4     8        1 
        1645       17.895     4     8        1 
        1652       18.155     4     8        1 
        1659        19.09     4     8        1 
        1673       20.025     4     8        1 
        1680        20.59     4     8        1 
        1687        20.11     4     8        1 
        1694        20.89     4     8        1 
        1708       19.085     4     8        1 
        1715        20.39     4     8        1 
        1722        21.25     4     8        1 
        1729        22.61     4     8        1 
        1736       21.695     4     8        1 
        -7.6          0.3     5     1        1 
        -7.8        0.292     5     1        1 
        -7.8        0.293     5     1        1 
        -7.9        0.289     5     1        1 
       -10.5        0.293     5     1        1 
       -11.5        0.294     5     1        1 
         -12        0.284     5     1        1 
       -12.8        0.284     5     1        1 
         -13        0.286     5     1        1 
       -14.5        0.282     5     1        1 
       -16.1        0.287     5     1        1 
       -16.4        0.283     5     1        1 
       -16.4        0.287     5     1        1 
       -18.2        0.282     5     1        1 
       -18.5        0.283     5     1        1 
       -18.6        0.286     5     1        1 
       -19.6        0.276     5     1        1 
       -19.7        0.282     5     1        1 
       -20.1         0.28     5     1        1 
       -20.2        0.285     5     1        1 
       -21.5        0.275     5     1        1 
       -22.1         0.28     5     1        1 
       -22.1         0.28     5     1        1 
       -22.4        0.282     5     1        1 
       -22.4        0.281     5     1        1 
       -23.7        0.281     5     1        1 
       -23.8        0.282     5     1        1 
       -23.9        0.277     5     1        1 
       -24.2        0.284     5     1        1 
       -26.1        0.277     5     1        1 
       -26.4        0.268     5     1        1 
       -26.5        0.272     5     1        1 
       -27.9        0.276     5     1        1 
       -28.2        0.278     5     1        1 
       -29.4        0.276     5     1        1 
       -30.4         0.27     5     1        1 
       -31.2        0.276     5     1        1 
       -31.9        0.277     5     1        1 
       -32.4        0.275     5     1        1 
       -32.5        0.275     5     1        1 
       -33.1        0.274     5     1        1 
       -33.2        0.275     5     1        1 
       -33.5        0.268     5     1        1 
       -33.7        0.273     5     1        1 
       -34.1        0.268     5     1        1 
       -34.8         0.27     5     1        1 
       -35.8        0.269     5     1        1 
       -36.3        0.271     5     1        1 
       -36.4        0.266     5     1        1 
         -37        0.269     5     1        1 
       -37.5        0.269     5     1        1 
       -37.9        0.272     5     1        1 
       -39.8        0.271     5     1        1 
       -40.2        0.269     5     1        1 
       -40.5        0.265     5     1        1 
       -40.7         0.27     5     1        1 
       -41.9        0.252     5     1        1 
       -42.6        0.262     5     1        1 
         -43        0.265     5     1        1 
       -44.1        0.269     5     1        1 
       -44.5        0.257     5     1        1 
       -44.6        0.266     5     1        1 
       -44.8        0.266     5     1        1 
       -45.1        0.267     5     1        1 
       -45.1        0.269     5     1        1 
       -45.2        0.264     5     1        1 
       -45.4        0.265     5     1        1 
       -45.7        0.268     5     1        1 
       -45.9        0.265     5     1        1 
       -47.1        0.262     5     1        1 
         -48        0.263     5     1        1 
       -50.3        0.264     5     1        1 
         -51        0.265     5     1        1 
       -51.3        0.262     5     1        1 
       -51.6        0.273     5     1        1 
         -52        0.257     5     1        1 
       -52.5        0.263     5     1        1 
       -52.5        0.263     5     1        1 
       -52.6        0.264     5     1        1 
         -55        0.263     5     1        1 
       -55.9        0.267     5     1        1 
       -56.5        0.259     5     1        1 
       -61.6        0.259     5     1        1 
       -61.8        0.254     5     1        1 
       -63.5        0.251     5     1        1 
       -66.2        0.258     5     1        1 
       -66.9        0.251     5     1        1 
       -68.3        0.253     5     1        1 
       -68.5        0.244     5     1        1 
         -70         0.25     5     1        1 
       -70.3        0.255     5     1        1 
       -71.8        0.231     5     1        1 
         -74        0.252     5     1        1 
       -74.7        0.254     5     1        1 
         -78        0.253     5     1        1 
       -79.9        0.248     5     1        1 
       -81.4        0.249     5     1        1 
       -82.4        0.252     5     1        1 
       -82.4        0.236     5     1        1 
       -82.6        0.236     5     1        1 
       -86.8        0.264     5     1        1 
       -89.4        0.249     5     1        1 
         -95        0.241     5     1        1 
       -95.1        0.232     5     1        1 
       -99.6        0.245     5     1        1 
      -101.2        0.271     5     1        1 
      -105.6        0.262     5     1        1 