Pcp_File_Version=4
    2
    1  0.000000e+000  1.000000e+000  5.000000e-001
    2 -1.000000e+002  1.000000e+000  1.000000e+000
  101    1    1    1 x         h      Mat  Lay      Beta           Axz            Bxz            Dxz          Temp          Conc 
    1 -0.000000e+000  1.000000e-001    1    1  1.000000e+000  1.000000e+000  1.000000e+000  1.000000e+000  2.000000e+001  8.400000e+001
    2 -6.666670e-001  1.000000e-001    1    1  9.778270e-001  1.000000e+000  1.000000e+000  1.000000e+000  2.000000e+001  8.400000e+001
    3 -1.340070e+000  1.000000e-001    1    1  9.554310e-001  1.000000e+000  1.000000e+000  1.000000e+000  2.000000e+001  8.400000e+001
    4 -2.020200e+000  1.000000e-001    1    1  9.328110e-001  1.000000e+000  1.000000e+000  1.000000e+000  2.000000e+001  8.400000e+001
    5 -2.707070e+000  1.000000e-001    1    1  9.099660e-001  1.000000e+000  1.000000e+000  1.000000e+000  2.000000e+001  8.400000e+001
    6 -3.400670e+000  1.000000e-001    1    1  8.868980e-001  1.000000e+000  1.000000e+000  1.000000e+000  2.000000e+001  8.400000e+001
    7 -4.101010e+000  1.000000e-001    1    1  8.636060e-001  1.000000e+000  1.000000e+000  1.000000e+000  2.000000e+001  8.400000e+001
    8 -4.808080e+000  1.000000e-001    1    1  8.400900e-001  1.000000e+000  1.000000e+000  1.000000e+000  2.000000e+001  8.400000e+001
    9 -5.521880e+000  1.000000e-001    1    1  8.163490e-001  1.000000e+000  1.000000e+000  1.000000e+000  2.000000e+001  8.400000e+001
   10 -6.242420e+000  1.000000e-001    1    1  7.923850e-001  1.000000e+000  1.000000e+000  1.000000e+000  2.000000e+001  8.400000e+001
   11 -6.969700e+000  1.000000e-001    1    1  7.681970e-001  1.000000e+000  1.000000e+000  1.000000e+000  2.000000e+001  8.400000e+001
   12 -7.703700e+000  1.000000e-001    1    1  7.437850e-001  1.000000e+000  1.000000e+000  1.000000e+000  2.000000e+001  8.400000e+001
   13 -8.444440e+000  1.000000e-001    1    1  7.191490e-001  1.000000e+000  1.000000e+000  1.000000e+000  2.000000e+001  8.400000e+001
   14 -9.191920e+000  1.000000e-001    1    1  6.942890e-001  1.000000e+000  1.000000e+000  1.000000e+000  2.000000e+001  8.400000e+001
   15 -9.946130e+000  1.000000e-001    1    1  6.692050e-001  1.000000e+000  1.000000e+000  1.000000e+000  2.000000e+001  8.400000e+001
   16 -1.070710e+001  1.000000e-001    1    1  6.438970e-001  1.000000e+000  1.000000e+000  1.000000e+000  2.000000e+001  7.100000e+001
   17 -1.147470e+001  1.000000e-001    1    1  6.183650e-001  1.000000e+000  1.000000e+000  1.000000e+000  2.000000e+001  7.100000e+001
   18 -1.224920e+001  1.000000e-001    1    1  5.926090e-001  1.000000e+000  1.000000e+000  1.000000e+000  2.000000e+001  7.100000e+001
   19 -1.303030e+001  1.000000e-001    1    1  5.666290e-001  1.000000e+000  1.000000e+000  1.000000e+000  2.000000e+001  7.100000e+001
   20 -1.381820e+001  1.000000e-001    1    1  5.404250e-001  1.000000e+000  1.000000e+000  1.000000e+000  2.000000e+001  7.100000e+001
   21 -1.461280e+001  1.000000e-001    1    1  5.139980e-001  1.000000e+000  1.000000e+000  1.000000e+000  2.000000e+001  7.100000e+001
   22 -1.541410e+001  1.000000e-001    1    1  4.873460e-001  1.000000e+000  1.000000e+000  1.000000e+000  2.000000e+001  7.100000e+001
   23 -1.622220e+001  1.000000e-001    1    1  4.604700e-001  1.000000e+000  1.000000e+000  1.000000e+000  2.000000e+001  7.100000e+001
   24 -1.703700e+001  1.000000e-001    1    1  4.333710e-001  1.000000e+000  1.000000e+000  1.000000e+000  2.000000e+001  7.100000e+001
   25 -1.785860e+001  1.000000e-001    1    1  4.060470e-001  1.000000e+000  1.000000e+000  1.000000e+000  2.000000e+001  7.100000e+001
   26 -1.868690e+001  1.000000e-001    1    1  3.784990e-001  1.000000e+000  1.000000e+000  1.000000e+000  2.000000e+001  7.100000e+001
   27 -1.952190e+001  1.000000e-001    1    1  3.507280e-001  1.000000e+000  1.000000e+000  1.000000e+000  2.000000e+001  7.100000e+001
   28 -2.036360e+001  1.000000e-001    1    1  3.227320e-001  1.000000e+000  1.000000e+000  1.000000e+000  2.000000e+001  6.500000e+001
   29 -2.121210e+001  1.000000e-001    1    1  2.945130e-001  1.000000e+000  1.000000e+000  1.000000e+000  2.000000e+001  6.500000e+001
   30 -2.206730e+001  1.000000e-001    1    1  2.660690e-001  1.000000e+000  1.000000e+000  1.000000e+000  2.000000e+001  6.500000e+001
   31 -2.292930e+001  1.000000e-001    1    1  2.374020e-001  1.000000e+000  1.000000e+000  1.000000e+000  2.000000e+001  6.500000e+001
   32 -2.379800e+001  1.000000e-001    1    1  2.085110e-001  1.000000e+000  1.000000e+000  1.000000e+000  2.000000e+001  6.500000e+001
   33 -2.467340e+001  1.000000e-001    1    1  1.793950e-001  1.000000e+000  1.000000e+000  1.000000e+000  2.000000e+001  6.500000e+001
   34 -2.555560e+001  1.000000e-001    1    1  1.500560e-001  1.000000e+000  1.000000e+000  1.000000e+000  2.000000e+001  6.500000e+001
   35 -2.644440e+001  1.000000e-001    1    1  1.204930e-001  1.000000e+000  1.000000e+000  1.000000e+000  2.000000e+001  6.500000e+001
   36 -2.734010e+001  1.000000e-001    1    1  9.070550e-002  1.000000e+000  1.000000e+000  1.000000e+000  2.000000e+001  6.500000e+001
   37 -2.824240e+001  1.000000e-001    1    1  6.069430e-002  1.000000e+000  1.000000e+000  1.000000e+000  2.000000e+001  6.500000e+001
   38 -2.915150e+001  1.000000e-001    1    1  3.045910e-002  1.000000e+000  1.000000e+000  1.000000e+000  2.000000e+001  6.500000e+001
   39 -3.006730e+001  1.000000e-001    1    1  0.000000e+000  1.000000e+000  1.000000e+000  1.000000e+000  2.000000e+001  6.500000e+001
   40 -3.098990e+001  1.000000e-001    1    1  0.000000e+000  1.000000e+000  1.000000e+000  1.000000e+000  2.000000e+001  5.500000e+001
   41 -3.191920e+001  1.000000e-001    1    1  0.000000e+000  1.000000e+000  1.000000e+000  1.000000e+000  2.000000e+001  5.500000e+001
   42 -3.285520e+001  1.000000e-001    1    1  0.000000e+000  1.000000e+000  1.000000e+000  1.000000e+000  2.000000e+001  5.500000e+001
   43 -3.379800e+001  1.000000e-001    1    1  0.000000e+000  1.000000e+000  1.000000e+000  1.000000e+000  2.000000e+001  5.500000e+001
   44 -3.474750e+001  1.000000e-001    1    1  0.000000e+000  1.000000e+000  1.000000e+000  1.000000e+000  2.000000e+001  5.500000e+001
   45 -3.570370e+001  1.000000e-001    1    1  0.000000e+000  1.000000e+000  1.000000e+000  1.000000e+000  2.000000e+001  5.500000e+001
   46 -3.666670e+001  1.000000e-001    1    1  0.000000e+000  1.000000e+000  1.000000e+000  1.000000e+000  2.000000e+001  5.500000e+001
   47 -3.763640e+001  1.000000e-001    1    1  0.000000e+000  1.000000e+000  1.000000e+000  1.000000e+000  2.000000e+001  5.500000e+001
   48 -3.861280e+001  1.000000e-001    1    1  0.000000e+000  1.000000e+000  1.000000e+000  1.000000e+000  2.000000e+001  5.500000e+001
   49 -3.959600e+001  1.000000e-001    1    1  0.000000e+000  1.000000e+000  1.000000e+000  1.000000e+000  2.000000e+001  5.500000e+001
   50 -4.058590e+001  1.000000e-001    1    1  0.000000e+000  1.000000e+000  1.000000e+000  1.000000e+000  2.000000e+001  5.200000e+001
   51 -4.158250e+001  1.000000e-001    1    1  0.000000e+000  1.000000e+000  1.000000e+000  1.000000e+000  2.000000e+001  5.200000e+001
   52 -4.258590e+001  1.000000e-001    1    1  0.000000e+000  1.000000e+000  1.000000e+000  1.000000e+000  2.000000e+001  5.200000e+001
   53 -4.359600e+001  1.000000e-001    1    1  0.000000e+000  1.000000e+000  1.000000e+000  1.000000e+000  2.000000e+001  5.200000e+001
   54 -4.461280e+001  1.000000e-001    1    1  0.000000e+000  1.000000e+000  1.000000e+000  1.000000e+000  2.000000e+001  5.200000e+001
   55 -4.563640e+001  1.000000e-001    1    1  0.000000e+000  1.000000e+000  1.000000e+000  1.000000e+000  2.000000e+001  5.200000e+001
   56 -4.666670e+001  1.000000e-001    1    1  0.000000e+000  1.000000e+000  1.000000e+000  1.000000e+000  2.000000e+001  5.200000e+001
   57 -4.770370e+001  1.000000e-001    1    1  0.000000e+000  1.000000e+000  1.000000e+000  1.000000e+000  2.000000e+001  5.200000e+001
   58 -4.874750e+001  1.000000e-001    1    1  0.000000e+000  1.000000e+000  1.000000e+000  1.000000e+000  2.000000e+001  5.200000e+001
   59 -4.979800e+001  1.000000e-001    1    1  0.000000e+000  1.000000e+000  1.000000e+000  1.000000e+000  2.000000e+001  5.200000e+001
   60 -5.085520e+001  1.000000e-001    1    1  0.000000e+000  1.000000e+000  1.000000e+000  1.000000e+000  2.000000e+001  5.100000e+001
   61 -5.191920e+001  1.000000e-001    1    1  0.000000e+000  1.000000e+000  1.000000e+000  1.000000e+000  2.000000e+001  5.100000e+001
   62 -5.298990e+001  1.000000e-001    1    1  0.000000e+000  1.000000e+000  1.000000e+000  1.000000e+000  2.000000e+001  5.100000e+001
   63 -5.406730e+001  1.000000e-001    1    1  0.000000e+000  1.000000e+000  1.000000e+000  1.000000e+000  2.000000e+001  5.100000e+001
   64 -5.515150e+001  1.000000e-001    1    1  0.000000e+000  1.000000e+000  1.000000e+000  1.000000e+000  2.000000e+001  5.100000e+001
   65 -5.624240e+001  1.000000e-001    1    1  0.000000e+000  1.000000e+000  1.000000e+000  1.000000e+000  2.000000e+001  5.100000e+001
   66 -5.734010e+001  1.000000e-001    1    1  0.000000e+000  1.000000e+000  1.000000e+000  1.000000e+000  2.000000e+001  5.100000e+001
   67 -5.844440e+001  1.000000e-001    1    1  0.000000e+000  1.000000e+000  1.000000e+000  1.000000e+000  2.000000e+001  5.100000e+001
   68 -5.955550e+001  1.000000e-001    1    1  0.000000e+000  1.000000e+000  1.000000e+000  1.000000e+000  2.000000e+001  5.100000e+001
   69 -6.067340e+001  1.000000e-001    1    1  0.000000e+000  1.000000e+000  1.000000e+000  1.000000e+000  2.000000e+001  4.800000e+001
   70 -6.179800e+001  1.000000e-001    1    1  0.000000e+000  1.000000e+000  1.000000e+000  1.000000e+000  2.000000e+001  4.800000e+001
   71 -6.292930e+001  1.000000e-001    1    1  0.000000e+000  1.000000e+000  1.000000e+000  1.000000e+000  2.000000e+001  4.800000e+001
   72 -6.406730e+001  1.000000e-001    1    1  0.000000e+000  1.000000e+000  1.000000e+000  1.000000e+000  2.000000e+001  4.800000e+001
   73 -6.521210e+001  1.000000e-001    1    1  0.000000e+000  1.000000e+000  1.000000e+000  1.000000e+000  2.000000e+001  4.800000e+001
   74 -6.636360e+001  1.000000e-001    1    1  0.000000e+000  1.000000e+000  1.000000e+000  1.000000e+000  2.000000e+001  4.800000e+001
   75 -6.752190e+001  1.000000e-001    1    1  0.000000e+000  1.000000e+000  1.000000e+000  1.000000e+000  2.000000e+001  4.800000e+001
   76 -6.868690e+001  1.000000e-001    1    1  0.000000e+000  1.000000e+000  1.000000e+000  1.000000e+000  2.000000e+001  4.800000e+001
   77 -6.985860e+001  1.000000e-001    1    1  0.000000e+000  1.000000e+000  1.000000e+000  1.000000e+000  2.000000e+001  4.800000e+001
   78 -7.103700e+001  1.000000e-001    1    1  0.000000e+000  1.000000e+000  1.000000e+000  1.000000e+000  2.000000e+001  4.800000e+001
   79 -7.222220e+001  1.000000e-001    1    1  0.000000e+000  1.000000e+000  1.000000e+000  1.000000e+000  2.000000e+001  4.800000e+001
   80 -7.341410e+001  1.000000e-001    1    1  0.000000e+000  1.000000e+000  1.000000e+000  1.000000e+000  2.000000e+001  4.800000e+001
   81 -7.461280e+001  1.000000e-001    1    1  0.000000e+000  1.000000e+000  1.000000e+000  1.000000e+000  2.000000e+001  4.800000e+001
   82 -7.581820e+001  1.000000e-001    1    1  0.000000e+000  1.000000e+000  1.000000e+000  1.000000e+000  2.000000e+001  4.800000e+001
   83 -7.703030e+001  1.000000e-001    1    1  0.000000e+000  1.000000e+000  1.000000e+000  1.000000e+000  2.000000e+001  4.800000e+001
   84 -7.824920e+001  1.000000e-001    1    1  0.000000e+000  1.000000e+000  1.000000e+000  1.000000e+000  2.000000e+001  4.800000e+001
   85 -7.947470e+001  1.000000e-001    1    1  0.000000e+000  1.000000e+000  1.000000e+000  1.000000e+000  2.000000e+001  4.800000e+001
   86 -8.070710e+001  1.000000e-001    1    1  0.000000e+000  1.000000e+000  1.000000e+000  1.000000e+000  2.000000e+001  4.800000e+001
   87 -8.194610e+001  1.000000e-001    1    1  0.000000e+000  1.000000e+000  1.000000e+000  1.000000e+000  2.000000e+001  4.800000e+001
   88 -8.319190e+001  1.000000e-001    1    1  0.000000e+000  1.000000e+000  1.000000e+000  1.000000e+000  2.000000e+001  4.800000e+001
   89 -8.444440e+001  1.000000e-001    1    1  0.000000e+000  1.000000e+000  1.000000e+000  1.000000e+000  2.000000e+001  4.800000e+001
   90 -8.570370e+001  1.000000e-001    1    1  0.000000e+000  1.000000e+000  1.000000e+000  1.000000e+000  2.000000e+001  4.800000e+001
   91 -8.696970e+001  1.000000e-001    1    1  0.000000e+000  1.000000e+000  1.000000e+000  1.000000e+000  2.000000e+001  4.800000e+001
   92 -8.824240e+001  1.000000e-001    1    1  0.000000e+000  1.000000e+000  1.000000e+000  1.000000e+000  2.000000e+001  4.800000e+001
   93 -8.952190e+001  1.000000e-001    1    1  0.000000e+000  1.000000e+000  1.000000e+000  1.000000e+000  2.000000e+001  4.800000e+001
   94 -9.080810e+001  1.000000e-001    1    1  0.000000e+000  1.000000e+000  1.000000e+000  1.000000e+000  2.000000e+001  4.800000e+001
   95 -9.210100e+001  1.000000e-001    1    1  0.000000e+000  1.000000e+000  1.000000e+000  1.000000e+000  2.000000e+001  4.800000e+001
   96 -9.340070e+001  1.000000e-001    1    1  0.000000e+000  1.000000e+000  1.000000e+000  1.000000e+000  2.000000e+001  4.800000e+001
   97 -9.470710e+001  1.000000e-001    1    1  0.000000e+000  1.000000e+000  1.000000e+000  1.000000e+000  2.000000e+001  4.800000e+001
   98 -9.602020e+001  1.000000e-001    1    1  0.000000e+000  1.000000e+000  1.000000e+000  1.000000e+000  2.000000e+001  4.800000e+001
   99 -9.734010e+001  1.000000e-001    1    1  0.000000e+000  1.000000e+000  1.000000e+000  1.000000e+000  2.000000e+001  4.800000e+001
  100 -9.866670e+001  1.000000e-001    1    1  0.000000e+000  1.000000e+000  1.000000e+000  1.000000e+000  2.000000e+001  4.800000e+001
  101 -1.000000e+002  1.000000e-001    1    1  0.000000e+000  1.000000e+000  1.000000e+000  1.000000e+000  2.000000e+001  4.800000e+001
    7
    9   22   34   45   55   64   73
